Version 4
SHEET 1 880 680

WIRE 224 -128 16 -128      ; VDD Connection
WIRE 224 -112 192 -112
WIRE 224 -80 224 -112      ; PMOS Drain Connection
WIRE 176 -48 48 -48        ; Input to NMOS & PMOS Gate
WIRE 224 0 224 -32         ; NMOS Drain to Output
WIRE 224 16 224 0
WIRE 48 96 48 -48          ; Input Signal Path
WIRE 176 96 48 96
WIRE 224 96 224 64         ; Output to Ground
FLAG 224 112 0             ; Ground Connection
FLAG 16 -48 0              ; Input Reference
FLAG 48 176 0              ; Another Ground
FLAG 224 0 output          ; Output Label
IOPIN 224 0 Out            ; Output Definition
FLAG 48 96 lnput           ; Input Label
IOPIN 48 96 In             ; Input Definition

SYMBOL cmosn 176 16 R0     ; NMOS Definition
SYMATTR InstName M1
SYMATTR Value2 l=180n w=400n

SYMBOL cmosp 176 -128 R0   ; PMOS Definition
SYMATTR InstName M2
SYMATTR Value2 l=180n w=800n

SYMBOL voltage 48 80 R0    ; Input Voltage Source
WINDOW 3 49 87 Left 2
WINDOW 123 0 0 Left 0
WINDOW 39 0 0 Left 0
SYMATTR InstName V1
SYMATTR Value PULSE(0 1.8 0.2n 50p 50p 0.5n 1n 6)  ; Input Pulse Signal

SYMBOL voltage 16 -144 R0  ; Power Supply
WINDOW 123 0 0 Left 0
WINDOW 39 0 0 Left 0
SYMATTR InstName V2
SYMATTR Value 1.8          ; VDD = 1.8V

TEXT -318 -80 Left 2 !.tran 10n        ; Run transient analysis for 10ns
TEXT -320 -112 Left 2 !.include tsmc018.lib